Geom Title=sj_riv



Junct Name=jc_boseong
Junct X Y & Text X Y=14179502.46,4190380.516,14178981,4192559.25
Up River,Reach=Seomjin         ,main
Up River,Reach=Seomjin         ,boseong
Dn River,Reach=Seomjin         ,main_down
Junc L&A=200,
Junc L&A=0,

River Reach=Seomjin,main
Reach XY=416
 14150554.850000  4237089.263000 14150615.760000  4236961.963000
 14150648.160000  4236897.985000 14150646.530000  4236796.786000
 14150633.000000  4236658.250000 14150600.410000  4236555.532000
 14150542.560000  4236380.265000 14150483.100000  4236216.417000
 14150435.090000  4236122.692000 14150399.160000  4235944.958000
 14150360.060000  4235791.721000 14150345.400000  4235698.802000
 14150350.440000  4235570.932000 14150358.720000  4235425.446000
 14150418.940000  4235276.313000 14150548.970000  4235113.727000
 14150656.550000  4234929.315000 14150709.270000  4234798.461000
 14150793.980000  4234672.408000 14150876.130000  4234539.835000
 14150960.460000  4234457.542000 14151053.240000  4234388.611000
 14151107.430000  4234367.671000 14151152.390000  4234383.596000
 14151220.380000  4234380.902000 14151356.720000  4234353.335000
 14151524.020000  4234356.514000 14151678.060000  4234396.563000
 14151803.950000  4234449.399000 14151881.950000  4234506.374000
 14151957.560000  4234597.597000 14152051.870000  4234707.550000
 14152152.660000  4234803.632000 14152249.370000  4234885.859000
 14152345.230000  4234939.546000 14152484.710000  4234975.751000
 14152685.390000  4235010.728000 14152977.660000  4235027.932000
 14153264.080000  4235045.139000 14153485.560000  4235061.714000
 14153687.360000  4235054.993000 14153837.580000  4235080.864000
 14154022.760000  4235137.666000 14154219.260000  4235167.539000
 14154322.350000  4235162.490000 14154405.920000  4235133.006000
 14154547.950000  4235111.585000 14154696.500000  4235108.092000
 14154838.320000  4235069.419000 14154963.860000  4234999.132000
 14155105.810000  4234826.692000 14155313.840000  4234559.235000
 14155592.940000  4234272.094000 14155818.500000  4234013.418000
 14155876.660000  4233842.100000 14155829.650000  4233690.529000
 14155725.630000  4233571.928000 14155588.530000  4233480.775000
 14155399.510000  4233289.056000 14155220.780000  4233034.708000
 14155112.590000  4232781.826000 14155051.920000  4232603.873000
 14154956.650000  4232511.910000 14154823.050000  4232401.747000
 14154709.860000  4232266.273000 14154579.580000  4232057.263000
 14154459.710000  4231860.629000 14154364.600000  4231652.091000
 14154307.750000  4231414.152000 14154346.990000  4231228.782000
 14154473.890000  4231060.887000 14154702.600000  4230978.366000
 14154972.290000  4230943.706000 14155210.670000  4230819.102000
 14155420.680000  4230579.580000 14155743.210000  4230083.619000
 14156031.610000  4229604.872000 14156171.560000  4229454.020000
 14156360.470000  4229463.477000 14156552.540000  4229612.782000
 14156695.000000  4229790.535000 14156814.100000  4229875.742000
 14156971.110000  4229920.454000 14157181.580000  4230007.452000
 14157350.570000  4230128.427000 14157532.740000  4230352.403000
 14157742.390000  4230695.006000 14157951.970000  4230990.663000
 14158213.080000  4231272.263000 14158389.970000  4231468.921000
 14158457.620000  4231508.090000 14158522.880000  4231514.813000
 14158650.040000  4231497.768000 14158846.610000  4231421.089000
 14159013.810000  4231270.124000 14159137.120000  4231081.098000
 14159253.640000  4230910.670000 14159323.370000  4230715.885000
 14159315.070000  4230458.660000 14159245.480000  4230227.970000
 14159128.110000  4230061.891000 14158843.080000  4229794.424000
 14158480.350000  4229518.342000 14158053.770000  4229172.482000
 14157684.680000  4228845.091000 14157463.340000  4228658.708000
 14157275.020000  4228427.281000 14157251.260000  4228207.294000
 14157349.270000  4228028.163000 14157592.480000  4227933.843000
 14157939.990000  4227910.711000 14158271.970000  4227856.736000
 14158566.910000  4227774.464000 14158859.820000  4227716.205000
 14159075.800000  4227643.423000 14159254.050000  4227533.031000
 14159536.510000  4227283.253000 14159886.060000  4226839.279000
 14160167.500000  4226421.524000 14160257.770000  4226138.774000
 14160252.400000  4225892.078000 14160238.160000  4225593.915000
 14160190.830000  4225295.828000 14160126.130000  4225069.150000
 14160035.190000  4224859.151000 14159934.730000  4224669.540000
 14159905.940000  4224551.148000 14159951.930000  4224435.375000
 14160056.150000  4224239.650000 14160178.990000  4224025.153000
 14160242.610000  4223807.524000 14160260.060000  4223618.503000
 14160284.930000  4223486.491000 14160302.860000  4223312.002000
 14160310.890000  4223129.879000 14160311.100000  4222994.991000
 14160317.620000  4222855.204000 14160341.690000  4222728.089000
 14160353.660000  4222635.699000 14160333.810000  4222526.434000
 14160296.510000  4222304.927000 14160268.180000  4222107.676000
 14160275.740000  4222000.151000 14160331.510000  4221912.074000
 14160466.750000  4221817.283000 14160624.890000  4221740.035000
 14160759.160000  4221737.797000 14160879.840000  4221751.224000
 14161022.790000  4221713.780000 14161242.710000  4221609.841000
 14161478.520000  4221503.258000 14161671.370000  4221444.197000
 14161874.020000  4221424.203000 14162117.260000  4221426.919000
 14162252.350000  4221425.463000 14162266.050000  4221430.031000
 14162306.010000  4221397.950000 14162410.170000  4221329.941000
 14162512.130000  4221240.939000 14162582.140000  4221185.807000
 14162639.080000  4221160.024000 14162742.350000  4221080.302000
 14162869.490000  4220946.124000 14162953.770000  4220788.591000
 14162999.440000  4220594.113000 14163005.300000  4220434.421000
 14162988.480000  4220312.309000 14162949.310000  4220201.976000
 14162931.350000  4220147.872000 14162882.480000  4220115.649000
 14162803.000000  4220031.795000 14162695.690000  4219951.709000
 14162577.720000  4219892.168000 14162484.770000  4219871.126000
 14162402.350000  4219883.039000 14162323.980000  4219896.602000
 14162265.750000  4219893.262000 14162199.540000  4219865.562000
 14162123.040000  4219804.172000 14162060.080000  4219708.552000
 14162030.660000  4219602.597000 14162059.610000  4219494.763000
 14162087.140000  4219410.872000 14162084.390000  4219339.874000
 14162064.770000  4219264.679000 14162041.570000  4219207.095000
 14162046.550000  4219137.561000 14162076.810000  4219038.969000
 14162122.700000  4218912.741000 14162187.350000  4218766.279000
 14162193.790000  4218599.187000 14162067.870000  4218400.151000
 14161869.910000  4218170.014000 14161654.510000  4217963.363000
 14161411.930000  4217783.150000 14161166.360000  4217564.839000
 14160992.870000  4217390.336000 14160766.000000  4217306.284000
 14160469.340000  4217259.988000 14160207.530000  4217247.506000
 14160013.040000  4217259.304000 14159856.370000  4217296.747000
 14159698.860000  4217325.886000 14159546.640000  4217316.422000
 14159375.870000  4217274.755000 14159219.100000  4217181.280000
 14159135.690000  4217147.364000 14159126.450000  4217076.431000
 14159069.170000  4216901.175000 14158997.690000  4216655.137000
 14158967.050000  4216399.257000 14158999.710000  4216038.191000
 14159048.950000  4215701.521000 14159146.940000  4215417.409000
 14159316.130000  4215082.372000 14159459.450000  4214782.555000
 14159582.100000  4214521.853000 14159667.240000  4214305.508000
 14159660.100000  4214082.361000 14159607.100000  4213776.621000
 14159528.690000  4213457.424000 14159406.610000  4213178.361000
 14159275.840000  4212930.572000 14159156.880000  4212748.191000
 14159051.500000  4212550.501000 14158953.280000  4212280.701000
 14158883.170000  4212051.361000 14158806.610000  4211838.313000
 14158733.010000  4211733.194000 14158747.430000  4211718.701000
 14158709.190000  4211629.267000 14158626.600000  4211436.689000
 14158513.760000  4211142.198000 14158427.090000  4210862.470000
 14158414.660000  4210715.061000 14158446.040000  4210604.185000
 14158546.500000  4210528.814000 14158699.030000  4210489.955000
 14158860.760000  4210436.432000 14159026.550000  4210346.558000
 14159161.890000  4210254.789000 14159253.270000  4210180.164000
 14159306.170000  4210102.361000 14159323.000000  4210012.833000
 14159310.690000  4209933.126000 14159266.480000  4209894.162000
 14159194.780000  4209886.981000 14159120.030000  4209876.823000
 14159000.280000  4209840.717000 14158807.440000  4209803.667000
 14158607.380000  4209800.798000 14158458.350000  4209798.642000
 14158346.470000  4209744.345000 14158218.230000  4209596.519000
 14158082.560000  4209373.862000 14157980.970000  4209129.524000
 14157942.580000  4208898.089000 14157972.110000  4208662.121000
 14158035.930000  4208362.778000 14158137.940000  4208050.681000
 14158303.010000  4207803.086000 14158470.210000  4207666.765000
 14158671.530000  4207585.038000 14158956.400000  4207492.735000
 14159256.630000  4207374.095000 14159475.840000  4207237.228000
 14159631.550000  4207112.470000 14159785.870000  4207020.898000
 14159917.440000  4206977.198000 14160031.600000  4206969.645000
 14160189.450000  4206964.901000 14160448.150000  4206942.052000
 14160722.800000  4206897.155000 14160918.390000  4206835.665000
 14161128.260000  4206833.265000 14161397.530000  4206885.390000
 14161632.830000  4206959.056000 14161788.560000  4207077.791000
 14161912.230000  4207311.650000 14161991.270000  4207570.989000
 14161983.930000  4207769.154000 14161906.570000  4207942.097000
 14161778.680000  4208116.131000 14161673.160000  4208301.831000
 14161627.550000  4208480.243000 14161644.820000  4208666.547000
 14161723.440000  4208906.736000 14161815.990000  4209161.650000
 14161901.380000  4209392.830000 14161996.380000  4209575.016000
 14162173.100000  4209648.654000 14162416.030000  4209625.328000
 14162677.490000  4209560.462000 14162841.340000  4209534.505000
 14162919.080000  4209532.698000 14163101.000000  4209527.757000
 14163334.950000  4209478.398000 14163487.400000  4209381.770000
 14163552.380000  4209289.416000 14163584.540000  4209190.903000
 14163614.890000  4209008.603000 14163681.620000  4208799.373000
 14163801.900000  4208664.047000 14163955.490000  4208573.382000
 14164071.070000  4208479.096000 14164151.580000  4208364.965000
 14164242.230000  4208254.454000 14164413.080000  4208062.619000
 14164647.570000  4207840.924000 14164929.800000  4207620.601000
 14165208.080000  4207373.932000 14165384.110000  4207195.573000
 14165475.370000  4207059.074000 14165517.740000  4206904.753000
 14165609.910000  4206722.977000 14165800.470000  4206513.624000
 14166040.930000  4206337.596000 14166263.970000  4206253.841000
 14166475.970000  4206202.046000 14166639.570000  4206219.508000
 14166747.490000  4206307.060000 14166902.370000  4206395.299000
 14167082.300000  4206463.136000 14167261.230000  4206460.214000
 14167464.590000  4206415.472000 14167795.000000  4206405.186000
 14168288.650000  4206429.842000 14168808.320000  4206490.841000
 14169347.910000  4206548.909000 14169809.450000  4206497.873000
 14170195.030000  4206336.672000 14170572.530000  4206108.665000
 14170872.240000  4205871.524000 14171143.720000  4205685.668000
 14171469.600000  4205501.195000 14171824.090000  4205354.361000
 14172116.680000  4205301.398000 14172599.910000  4205320.682000
 14173105.260000  4205369.811000 14173299.690000  4205406.916000
 14173387.500000  4205449.690000 14173524.310000  4205472.785000
 14173631.520000  4205467.113000 14173696.210000  4205442.503000
 14173835.540000  4205327.411000 14173964.070000  4205022.026000
 14174017.340000  4204603.049000 14174031.670000  4204386.044000
 14174067.060000  4204070.830000 14174202.670000  4203334.991000
 14174305.460000  4202696.216000 14174187.870000  4202258.382000
 14173974.340000  4201933.886000 14173799.480000  4201674.308000
 14173704.090000  4201460.810000 14173706.010000  4201306.343000
 14173754.790000  4201129.827000 14173928.900000  4200922.823000
 14174294.440000  4200647.818000 14174643.600000  4200515.283000
 14174868.190000  4200496.315000 14175061.470000  4200409.817000
 14175274.510000  4200222.574000 14175426.740000  4200071.711000
 14175640.470000  4199979.932000 14175935.150000  4199900.469000
 14176047.860000  4199878.386000 14176101.310000  4199861.685000
 14176232.620000  4199775.632000 14176408.950000  4199604.722000
 14176553.430000  4199270.634000 14176634.560000  4198871.430000
 14176802.430000  4198467.444000 14176980.760000  4198141.940000
 14177066.500000  4197951.458000 14177160.160000  4197809.223000
 14177294.870000  4197740.959000 14177442.430000  4197736.037000
 14177560.130000  4197729.846000 14177778.460000  4197580.969000
 14178262.700000  4197116.763000 14178611.120000  4196750.755000
 14178719.870000  4196626.019000 14178817.220000  4196481.823000
 14178812.760000  4196369.295000 14178783.010000  4196279.650000
 14178778.010000  4196207.179000 14178795.680000  4196119.355000
 14178837.400000  4196039.347000 14178905.130000  4195916.868000
 14178951.740000  4195789.934000 14178947.950000  4195685.130000
 14178920.160000  4195520.747000 14178869.420000  4195318.589000
 14178802.450000  4195147.400000 14178660.430000  4195019.556000
 14178516.780000  4194890.094000 14178442.760000  4194731.773000
 14178388.200000  4194543.159000 14178418.630000  4194372.756000
 14178582.010000  4194110.870000 14178808.760000  4193795.508000
 14179003.010000  4193618.705000 14179141.670000  4193499.899000
 14179220.900000  4193406.664000 14179255.340000  4193273.305000
 14179213.600000  4193105.726000 14179066.170000  4192876.812000
 14178980.810000  4192559.129000 14178980.810000  4192559.129000
 14178971.530000  4192479.456000 14178976.530000  4192086.935000
 14179056.850000  4191665.318000 14179232.650000  4191133.705000
 14179400.850000  4190708.693000 14179502.460000  4190380.516000

Type RM Length L Ch R = 1,136,107,107,107
#Sta/Elev=24
       0  245.39   61.44   221.7   73.58   221.7   80.41  221.69   86.44  208.47
   98.76  199.04  102.84  199.04  107.19  199.09  116.74  195.47  123.09  195.09
  126.55   194.5  128.23  194.42  179.55  152.07  195.85  152.07  195.85  139.05
  353.37  139.05  353.37  145.86  355.62  145.83  451.76  207.67  456.72  207.67
  471.25  223.13  482.78  223.13  501.89  241.39  547.95  265.73
#Mann=
       0   0.037       0  107.19   0.037       0  451.76   0.037       0
Bank Sta=107.19,451.76
Exp/Cntr=0.3,0.1

Type RM Length L Ch R = 1,135.307,107,107,107
#Sta/Elev=24
       0  245.39   61.44   221.7   73.58   221.7   80.41  221.69   86.44  208.47
   98.76  199.04  102.84  199.04  107.19  199.09  116.74  195.47  123.09  195.09
  126.55   194.5  128.23  194.42  179.55  152.07  195.85  152.07  195.85  139.05
  353.37  139.05  353.37  145.86  355.62  145.83  451.76  207.67  456.72  207.67
  471.25  223.13  482.78  223.13  501.89  241.39  547.95  265.73
#Mann=
       0   0.037       0  107.19   0.037       0  451.76   0.037       0
Bank Sta=107.19,451.76
Exp/Cntr=0.3,0.1

Type RM Length L Ch R = 1,135.200,200,200,200
#Sta/Elev=39
       0  220.03   81.88  196.12  104.02  196.01  114.29  196.01  122.06  195.98
  149.24  180.74  154.86  180.48  190.63  162.29  198.24  162.25  214.17  153.79
  227.55   153.7  230.47  152.77  246.67  142.49  255.11  142.13  267.42  140.05
  280.49  139.01  287.51  138.34  292.51  138.04  303.61  137.78  305.36  137.74
  307.93  137.35  321.22  137.01  322.39  137.24   333.9  137.84   365.9  138.12
  370.69  138.46  371.18  139.01  380.78  144.41  382.06  144.44  388.02  147.52
  393.95  147.54  504.92  217.74     510   217.9  510.71  220.52  516.87  222.27
   526.8  222.27  556.06  237.81  595.13  254.72     640     276
#Mann=
       0   0.037       0  122.06   0.037       0  504.92   0.037       0
Bank Sta=122.06,504.92
Exp/Cntr=0.3,0.1

Type RM Length L Ch R = 1,135.000,200,200,200
#Sta/Elev=21
       0  231.18   83.94  192.91  107.89  183.18  116.35  183.21  152.83  143.27
  173.47  139.16  243.27  139.48  267.64  138.08  275.63   137.4  280.64   136.9
   288.4  137.17  296.04  137.34  301.93  137.65  303.33  138.08  307.29  138.61
  325.23  138.42  337.72  137.97  525.85  216.03   540.8  216.18  580.09  229.52
  630.39  249.57
#Mann=
       0   0.037       0  116.35   0.037       0  525.85   0.037       0
Bank Sta=116.35,525.85
Exp/Cntr=0.3,0.1

Type RM Length L Ch R = 1,134.800,200,200,200
#Sta/Elev=25
       0  205.34   76.69  167.78   86.73  167.78   88.01  164.37   96.72  164.47
  102.46  160.72  106.81  160.84  115.19  150.91  145.79  138.72  168.54  138.79
  172.93  137.26  176.94  136.72   184.5  136.52  202.63  136.38  210.01  137.26
  219.86  137.42  222.82  137.92   256.1  138.09  436.07  200.42  436.07  205.22
  437.75  205.19  440.56  205.71  454.58  205.03  511.28  243.14  566.38  271.36
#Mann=
       0   0.037       0   96.72   0.037       0  436.07   0.037       0
Bank Sta=96.72,436.07
Exp/Cntr=0.3,0.1

Type RM Length L Ch R = 1,134.600,200,200,200
#Sta/Elev=33
       0  195.47   53.04  178.74  113.23  157.29  118.65  154.36  126.21  154.36
  128.03  153.58  131.65  153.36  132.57  152.93  163.34  137.42  165.74  137.17
  178.47  136.73  183.46  136.43  195.14  136.52  210.44  136.34  223.16  136.74
  224.75  137.17  225.23  137.44  241.25  137.25  251.49   140.7  283.16  141.05
  283.96  141.84  304.53  141.74   344.9  159.08  368.79  159.13  368.79  158.71
  369.21  158.71  443.12  193.56  443.12  198.37  444.77  198.29   447.4  198.97
  460.84  198.51  485.12  217.25  530.64  246.77
#Mann=
       0   0.037       0  126.21   0.037       0  443.12   0.037       0
Bank Sta=126.21,443.12
Exp/Cntr=0.3,0.1

Type RM Length L Ch R = 1,134.400,200,200,200
#Sta/Elev=48
       0  186.69   15.49  186.69   19.88  183.57   27.99  183.57   34.45   179.5
   42.66   179.5   45.61  177.72   53.59  177.72    60.3  173.28   74.12  173.28
   79.06  168.66   91.39  168.66   98.76  162.35  108.55  156.36  116.73  156.35
  152.49  137.63  158.81  136.45  170.97   135.8  179.81  135.57  184.82  135.27
  186.33  135.29   200.7  135.01  216.55  134.76  223.17  135.86  227.17  136.45
  236.62  137.37  242.73  138.37   263.5  139.89     267   139.6  272.24  139.64
  274.24  140.05  276.09  141.82  304.61  141.93   308.3  141.67  312.46  143.38
  319.42  143.46  388.62  174.77  394.06  174.94  421.62  187.76  421.62  191.36
   422.9  191.36  423.72  191.08  423.84  190.66  424.34  190.66  424.52  191.13
  426.07  191.88  441.32  191.74  517.29  236.37
#Mann=
       0   0.037       0  116.73   0.037       0  421.62   0.037       0
Bank Sta=116.73,421.62
Exp/Cntr=0.3,0.1

Type RM Length L Ch R = 1,134.200,200,200,200
#Sta/Elev=29
       0  183.47   20.32  181.39   50.11  169.92   52.02  169.92   64.75  169.84
   70.21  164.11  100.98  164.11  103.68  159.13  106.59  159.13  115.38  159.26
  146.39  140.03  179.36  136.32  180.54  135.92  190.59  136.09   197.7  135.88
  202.87  135.79   220.3   136.1  250.47  135.69  262.56  135.72  272.55  136.32
  279.63  137.02  288.69   141.4  306.41  141.66  386.71  179.28  386.73  182.35
  387.37  182.41  389.88  183.48  406.21  183.65  421.82   195.7
#Mann=
       0   0.037       0  115.38   0.037       0  386.73   0.037       0
Bank Sta=115.38,386.73
Exp/Cntr=0.3,0.1

Type RM Length L Ch R = 1,134.000,200,200,200
#Sta/Elev=23
       0  223.47    85.6  169.81  114.02  153.16  122.38  153.07  185.67  134.91
  189.67  134.91  190.31  135.31  199.44  135.07  207.18  134.45  211.94  134.07
  258.87  134.48  262.87  135.07  268.53  135.94  283.74  142.18  286.72  142.21
  291.99  142.56  349.65  167.11  349.65  170.21  352.33   171.2  353.64  171.08
  367.64  171.08   374.9  177.78  432.03  209.64
#Mann=
       0   0.037       0  122.38   0.037       0  349.65   0.037       0
Bank Sta=122.38,349.65
Exp/Cntr=0.3,0.1

Type RM Length L Ch R = 1,133.800,200,200,200
#Sta/Elev=35
       0  201.32   98.48  166.11  128.46  150.55  137.23  150.77   140.9  149.38
   141.4  146.38  154.86  142.23  155.18  142.08  163.96  140.56  169.88  138.61
  189.02  136.37  190.45  135.93  213.85  135.08  235.73  134.29  255.24  134.71
  261.18  134.88  263.52  133.48  264.32  133.39  267.32  132.89  273.53  132.56
  297.03  133.03  300.03  133.48  302.22  133.82  302.47  133.91  305.65  134.29
  309.79  137.06  311.05  137.09  314.07     137  336.17  154.92  336.17  157.94
  337.34  158.42  338.29  158.41  351.71  158.41  367.23  166.69  430.37  211.45
#Mann=
       0   0.037       0  137.23   0.037       0  336.17   0.037       0
Bank Sta=137.23,336.17
Exp/Cntr=0.3,0.1

Type RM Length L Ch R = 1,133.600,200,200,200
#Sta/Elev=19
       0     200    84.6  162.43  114.85  148.91  122.79  148.85  174.04  137.33
  190.39  131.88  229.42  131.88  233.83  131.68  244.79  131.55  258.47  132.26
  273.54  132.45  274.75  133.07  279.04  134.52  290.92  135.37  315.13  145.59
  315.88  145.66  324.47  145.95  354.35  161.24  420.37  185.66
#Mann=
       0   0.037       0  122.79   0.037       0  315.13   0.037       0
Bank Sta=122.79,315.13
Exp/Cntr=0.3,0.1

Type RM Length L Ch R = 1,133.400,200,200,200
#Sta/Elev=26
       0  190.12   84.65  163.24   97.77  157.99  109.87  147.66  117.34  147.92
  121.27  147.37  131.27  141.58  154.36   138.9  155.92  138.96  178.42  131.46
  186.97  131.46  194.47  131.28  207.91  131.62  209.42  131.74  212.44  131.98
  235.59  132.26  247.84  132.32  251.83  133.11  259.41  134.13  271.82  137.26
  280.85  139.09  283.47  139.85  296.23  139.71  304.04  147.39  327.83  151.27
  428.58  196.33
#Mann=
       0   0.037       0  121.27   0.037       0  283.47   0.037       0
Bank Sta=121.27,283.47
Exp/Cntr=0.3,0.1

Type RM Length L Ch R = 1,133.200,200,200,200
#Sta/Elev=36
       0  207.73   60.01  165.77   70.34  158.68   73.42  158.68   75.31  157.93
   95.41  146.79  103.75  147.05  116.26   137.9   138.5  136.99  140.44  135.71
  154.59  134.78  168.56  133.46  199.54   132.8  201.36  132.11  205.21   131.8
  206.36  131.71   215.1  131.88  219.37  132.19  222.21   132.8  256.65  133.57
  261.21  134.79  270.85  134.78  286.01  138.19   289.8  138.56  298.63  138.94
  300.04  138.28  300.49  138.29  301.24  138.56  340.25  138.56  344.03  139.45
   357.5  139.55  369.44  139.55  386.41  146.28  411.83  148.67  427.55  152.22
  444.48  152.22
#Mann=
       0   0.037       0  103.75   0.037       0  286.01   0.037       0
Bank Sta=103.75,286.01
Exp/Cntr=0.3,0.1

Type RM Length L Ch R = 1,133.000,200,200,200
#Sta/Elev=25
       0  206.37      74   156.5   98.27  146.29  106.49  146.25  119.45  139.47
  133.15  138.84  141.49  134.12  188.38  134.22  190.74  135.14  191.65  135.14
  196.76  132.55  199.73  131.92  200.27  131.81  205.27  131.21  213.32  130.52
  239.06  130.92   250.4  131.61   255.4  132.55  261.17  133.21  271.38   133.5
  278.51  138.53  286.99   138.6  299.54  138.42  324.63  146.17   381.3  155.22
#Mann=
       0   0.037       0  106.49   0.037       0  278.51   0.037       0
Bank Sta=106.49,278.51
Exp/Cntr=0.3,0.1

Type RM Length L Ch R = 1,132.800,150,150,150
#Sta/Elev=34
       0  180.23      61  154.14   70.84   146.7    78.2  146.62  110.91  146.45
  120.56  135.45  132.54  135.17  137.03  133.23  141.22   133.3  143.42  132.46
  145.89  131.63  150.89  131.13  158.63  131.02  166.04  130.84     167  130.82
  172.25     131  181.08  130.99  190.27  131.32  195.28  132.46  197.69  132.82
  220.81  132.88  242.62  132.71  256.22   138.7  264.52  138.74  274.37  139.24
  300.51  157.71  320.18  157.71  326.11  163.52  330.17  163.52  333.57     165
     340     165  348.24  170.52   351.4  170.52  413.61  191.36
#Mann=
       0   0.037       0  110.91   0.037       0  256.22   0.037       0
Bank Sta=110.91,256.22
Exp/Cntr=0.3,0.1

Type RM Length L Ch R = 1,132.650,50,50,50
#Sta/Elev=19
       0  184.74   67.12  151.65   72.13  150.22   77.14  146.44   77.84  146.44
   80.71  147.95   88.77  147.85   91.03  147.11   91.03  140.36   98.87  140.06
   120.5  135.71   138.8  131.86  241.92  131.86  280.18  138.36  288.64  138.19
  297.14  142.91  302.73     143  318.74  153.77   358.8  180.45
#Mann=
       0   0.037       0   91.03   0.037       0  280.18   0.037       0
Levee=0,,,-1,280.18,150
Bank Sta=91.03,280.18
Exp/Cntr=0.3,0.1

Type RM Length L Ch R = 1,132.600,200,200,200
#Sta/Elev=29
       0  189.84   72.64  148.67   77.69  148.67   85.77  148.18    93.8  148.18
   96.24   147.3   97.65  143.76  101.37  143.72  115.17  135.82  135.88  135.81
   149.5  131.51  154.13   131.1  157.13   130.9  167.92  130.67   179.8  130.86
  190.38     131  196.68  131.06  211.46  130.94  260.87  130.86   268.4  131.23
  269.45  131.51  270.49   131.8  272.92  132.68  274.28  133.08     284  138.17
  293.04  138.14  300.52  138.57  320.45  152.57  363.27  183.25
#Mann=
       0   0.037       0    93.8   0.037       0     284   0.037       0
Bank Sta=93.8,284
Exp/Cntr=0.3,0.1

Type RM Length L Ch R = 1,132.400,132,132,132
#Sta/Elev=25
       0  185.47    68.7  163.78   115.8  147.78  124.83  148.04  127.92  146.46
  147.22  132.89  168.01     133  175.14  133.02  186.76  131.55  190.58   130.4
  193.64  129.71  196.64  129.51   218.7  129.86   226.8   129.7  243.02  129.75
  259.05  129.52   275.1  130.02  283.21   130.4  295.47  135.46  296.09  135.83
  312.05  136.82  316.12  137.26  325.89  137.47   368.7  161.42  456.18  180.83
#Mann=
       0   0.037       0  124.83   0.037       0  316.12   0.037       0
Bank Sta=124.83,316.12
Exp/Cntr=0.3,0.1

Type RM Length L Ch R = 1,132.268,68,68,68
#Sta/Elev=36
       0  177.75   63.88     158   71.14     158   76.21  155.74   95.73  152.23
  102.86  146.95  110.15  146.48  119.09  146.88  122.36  145.04  130.94  133.91
  140.45  134.05  145.03  131.41  171.04   131.8  171.75  130.49  173.09  129.77
   178.1  129.07   179.5  128.53  184.19  128.68  188.14  128.77  196.43  128.87
  210.11  128.73  210.93  128.72  218.83  128.82  223.36  129.62   226.5   129.9
  231.08   129.8  235.24  130.49  239.07  131.73  257.98  131.27  270.49  131.42
  272.37  132.14  302.46  132.12  311.64  136.89  320.46  137.24  360.26  151.48
  389.06  170.38
#Mann=
       0   0.037       0  119.09   0.037       0  311.64   0.037       0
Bank Sta=119.09,311.64
Exp/Cntr=0.3,0.1

Type RM Length L Ch R = 1,132.200,200,200,200
#Sta/Elev=45
       0  175.48    23.4  169.41   28.17  165.52   47.97  165.52   56.38  159.33
   59.38  159.33  100.65  144.41  111.79  144.41  115.38  145.63  123.52  145.93
  126.16  136.94  132.27  136.94  137.14  133.63  143.65  133.56  146.57  131.34
   159.2  131.36  163.62  130.47  165.13   129.8  170.13   129.3  176.73   129.1
  182.77  129.03  190.35  128.76  202.85  128.64  213.84  128.63  215.07  128.67
  223.45  128.95  232.52  129.35  236.43   129.8  243.68  130.47  249.34  131.74
  285.08  132.26  294.14  132.26  299.49  135.26  311.74  135.51   315.4  136.93
  327.34  137.36  333.54  138.57   339.3  138.57  343.82  141.05  353.05  141.05
  361.07  147.22  365.42  147.22  366.53  151.09  387.04  151.09   424.4  169.75
#Mann=
       0   0.037       0  123.52   0.037       0   315.4   0.037       0
Bank Sta=123.52,315.4
Exp/Cntr=0.3,0.1

Type RM Length L Ch R = 1,132.000,200,200,200
#Sta/Elev=39
       0  174.23   34.52  164.35    38.8  164.35   46.27  157.12   65.02  156.32
   73.28  156.32   76.88  155.47   77.63  149.89   98.21  149.89  101.58  150.42
  106.93  150.42   120.4  141.44  127.83  141.42  130.52  141.36  135.87  138.08
  157.36  138.59  168.76  130.93  184.05  130.82  184.87  130.47  185.15  129.38
  190.15  128.68  193.74  128.37  207.39  128.48  216.48  128.31  222.92  128.19
  241.47  128.56  256.07  128.65     262  129.03  264.59  129.63  265.79  130.47
  267.28   131.5   287.7  131.71   290.6  132.96  301.32  132.77  307.83  136.81
  316.55  137.07  366.48  153.58  408.81  164.33  458.36  181.57
#Mann=
       0   0.037       0  130.52   0.037       0  307.83   0.037       0
Bank Sta=130.52,307.83
Exp/Cntr=0.3,0.1

Type RM Length L Ch R = 1,131.800,73.2,73.2,73.2
#Sta/Elev=32
       0  165.47    8.14  160.08   33.78  155.54   39.35     150   57.15     150
   58.74  149.62   72.32  149.62   77.79  144.13    87.4   144.2   97.15   144.2
  104.24  138.63  112.05     139  118.17  135.34  140.34  135.07  147.59  130.54
  167.32  130.72  168.06  130.41  169.45  129.76  174.45  129.16  187.73  128.58
  206.39   128.1  210.84  127.99  247.82  128.25  258.25  128.24  271.86  128.45
  281.46  129.28  283.46  130.41  293.36   135.9  303.03  136.19   323.3  146.85
  356.39  165.33  398.44  188.36
#Mann=
       0   0.037       0  112.05   0.037       0  293.36   0.037       0
Bank Sta=112.05,293.36
Exp/Cntr=0.3,0.1

Type RM Length L Ch R = 1,131.727,126.8,126.8,126.8
#Sta/Elev=23
       0  167.05   32.45  165.74   39.52  160.06    74.8  149.88   89.54  149.52
   95.23  149.52  115.87  144.77  119.04  144.23   123.8  138.48  132.25  138.48
  159.78  133.55  188.48  132.36  191.27   130.6  316.51   130.6  316.51  133.59
  316.94  133.59  316.94  132.55  322.66  132.55  328.77  135.41  338.45  135.66
  363.91   152.8  410.93  173.66  465.36  201.54
#Mann=
       0   0.037       0  132.25   0.037       0  328.77   0.037       0
Bank Sta=132.25,328.77
Exp/Cntr=0.3,0.1

Type RM Length L Ch R = 1,131.600,200,200,200
#Sta/Elev=34
       0  176.22   36.59  165.47   75.52  155.52   79.81   152.3   83.06   152.3
  108.89  145.28   116.9  138.01  124.06  138.04  133.11  137.74  145.12     131
  181.07  131.22  188.45  127.94  191.29  127.83  196.28  127.83  211.09  127.49
  236.81  127.16  240.06  127.11  242.61   127.6  243.31  127.94  243.53  128.05
   288.7  128.67  293.19  130.75  294.39  130.92  296.97  129.81  313.74  129.55
  316.16  130.56  317.18  130.74  317.18  129.69  318.67  129.69  326.23  134.01
  335.16  134.39  351.69  144.07  386.81  167.33  416.24   188.5
#Mann=
       0   0.037       0  133.11   0.037       0  326.23   0.037       0
Bank Sta=133.11,326.23
Exp/Cntr=0.3,0.1

Type RM Length L Ch R = 1,131.400,200,200,200
#Sta/Elev=24